Circuit: * D:\LTSpice\Opamp RC Phase shift Oscillator2.asc

Per .tran options, skipping operating point for transient analysis.
Changing Tseed to 9.76562e-009
Changing Tseed to 9.76563e-011
Changing Tseed to 9.76562e-008

Date: Sat Sep 24 13:17:19 2022
Total elapsed time: 0.373 seconds.

tnom = 27
temp = 27
method = modified trap
totiter = 25981
traniter = 25981
tranpoints = 7277
accept = 5283
rejected = 1991
matrix size = 10
fillins = 4
solver = Normal
Matrix Compiler1: 658 bytes object code size  0.1/0.1/[0.1]
Matrix Compiler2: 910 bytes object code size  0.1/0.1/[0.1]


